Version 4
SHEET 1 880 680
SYMBOL ultrasonic_amplifier 208 192 R0
SYMATTR InstName X1
