Version 4
SHEET 1 1436 836
WIRE 352 272 128 272
WIRE 848 272 352 272
WIRE 128 336 128 272
WIRE 256 352 240 352
WIRE 464 352 336 352
WIRE 352 448 352 272
WIRE 848 448 848 272
WIRE 240 464 240 352
WIRE 320 464 240 464
WIRE 464 480 464 352
WIRE 464 480 384 480
WIRE -272 496 -336 496
WIRE 128 496 128 416
WIRE 128 496 -208 496
WIRE 320 496 128 496
WIRE -336 544 -336 496
WIRE 128 592 128 496
WIRE 240 592 240 464
WIRE -336 752 -336 624
WIRE 128 752 128 672
WIRE 128 752 -336 752
WIRE 240 752 240 672
WIRE 240 752 128 752
WIRE 352 752 352 512
WIRE 352 752 240 752
WIRE 848 752 848 528
WIRE 848 752 352 752
WIRE 848 816 848 752
FLAG 848 816 0
SYMBOL Opamps\\opamp2 352 416 R0
SYMATTR InstName U1
SYMATTR Value MCP6491
SYMATTR SpiceModel MCP6491
SYMBOL voltage 848 432 R0
WINDOW 123 0 0 Left 2
WINDOW 39 0 0 Left 2
SYMATTR InstName V1
SYMATTR Value 5
SYMBOL voltage -336 528 R0
WINDOW 123 24 124 Left 2
WINDOW 39 0 0 Left 2
SYMATTR InstName V2
SYMATTR Value SINE(0 0.001 40000)
SYMATTR Value2 AC 1
SYMBOL cap -208 480 R90
WINDOW 0 0 32 VBottom 2
WINDOW 3 32 32 VTop 2
SYMATTR InstName C1
SYMATTR Value 47n
SYMBOL res 112 320 R0
SYMATTR InstName R1
SYMATTR Value 20k
SYMBOL res 112 576 R0
SYMATTR InstName R2
SYMATTR Value 20k
SYMBOL res 224 576 R0
SYMATTR InstName R3
SYMATTR Value 10k
SYMBOL res 352 336 R90
WINDOW 0 0 56 VBottom 2
WINDOW 3 32 56 VTop 2
SYMATTR InstName R4
SYMATTR Value 10k
TEXT 160 168 Left 2 !.lib Z:\\home\\erik\\Documents\\git_projects\\ultrasonic_anemometer\\hardware\\ltspice\\lib\\MCP6491.txt
TEXT -176 168 Left 2 !.tran 250u
